[General]
network = progetto.Network
repeat=10
num-rngs=2
sim-time-limit=100000s
seed-set=${repetition}

Network.producer.serviceDist = exponential(${sMean=5},1)
Network.producer.interArrivalDist = exponential(${sMean}/${utilization=0..0.9 step 0.1},0)
Network.system.server.queuePolicy = ${policy="LJF","FIFO"}

output-vector-file = ${resultdir}/${configname}-${policy}-${utilization}-${repetition}.vec
output-scalar-file = ${resultdir}/${configname}-${policy}-${utilization}-${repetition}.sca

