[General]
network = progetto.Network
repeat=10
num-rngs=2
sim-time-limit=100000s
seed-set=${repetition}

[Config Exponential]
Network.producer.serviceDist = exponential(${sMean=5},1)
Network.producer.interArrivalDist = exponential(${sMean}/${utilization=0.9},0)
Network.system.server.queuePolicy = ${policy="LJF","FIFO"}

output-vector-file = ${resultdir}/${configname}-${policy}-${utilization}-${repetition}.vec
output-scalar-file = ${resultdir}/${configname}-${policy}-${utilization}-${repetition}.sca

[Config Lognormal]
Network.producer.serviceDist = lognormal(log(pow(${sMean=5},2)/sqrt(pow(${cvar=0.5,1,2,10,50,100,200}*${sMean},2)+pow(${sMean},2))),sqrt(log(pow(${cvar}*${sMean},2)/pow(${sMean},2)+1)),1)
Network.producer.interArrivalDist = exponential(${sMean}/${utilization=0.9},0)
Network.system.server.queuePolicy = ${policy="LJF","FIFO"}

output-vector-file = ${resultdir}/${configname}-${policy}-${utilization}-${cvar}-${repetition}.vec
output-scalar-file = ${resultdir}/${configname}-${policy}-${utilization}-${cvar}-${repetition}.sca
