[General]
network = progetto.Network
repeat=20
num-rngs=2
sim-time-limit=150000s
seed-set=${repetition}

warmup-period=10000s
**.result-recording-modes = all
Network.system.server.minTime = 100000

Network.producer.interArrivalDist = exponential(${sMean=1}/${utilization=0..0.9 step 0.1,0.91..0.99 step 0.01},0)
Network.system.server.queuePolicy = ${policy="LJF","FIFO"}


[Config Exponential]
Network.producer.serviceDist = exponential(${sMean},1)

output-vector-file = ${resultdir}/${configname}-${policy}-${utilization}-${repetition}.vec
output-scalar-file = ${resultdir}/${configname}-${policy}-${utilization}-${repetition}.sca

[Config Lognormal]
Network.producer.serviceDist = lognormal(log(pow(${sMean},2)/sqrt(pow(${cvar=0.5,1,2}*${sMean},2)+pow(${sMean},2))),sqrt(log(pow(${cvar}*${sMean},2)/pow(${sMean},2)+1)),1)

output-vector-file = ${resultdir}/${configname}-${policy}-${utilization}-${cvar}-${repetition}.vec
output-scalar-file = ${resultdir}/${configname}-${policy}-${utilization}-${cvar}-${repetition}.sca

[Config Uniform]
Network.producer.serviceDist = uniform(0,2*${sMean},1)

output-vector-file = ${resultdir}/${configname}-${policy}-${utilization}-${repetition}.vec
output-scalar-file = ${resultdir}/${configname}-${policy}-${utilization}-${repetition}.sca

