[General]
network = progetto.Network
repeat=10
num-rngs=2
sim-time-limit=50000s
seed-set=${repetition}
Network.producer.stMean =1s
Network.producer.iaMean =${0.1s,1s,10s}

