[General]
network = progetto.Network
repeat=10
num-rngs=2
sim-time-limit=100000s
seed-set=${repetition}
Network.producer.interArrivalDist = exponential(3)
Network.producer.serviceDist = exponential(1)

