[General]
network = progetto.Network
repeat=10
num-rngs=2
sim-time-limit=10000s
seed-set=${repetition}
Network.producer.stMean =1s
Network.producer.iaMean =2s

